---- qbsp / ericw-tools v0.18.1-32-g6660c5f ----
Input file: bigbox.map
Output file: bigbox.bsp

---- LoadMapFile ----
*** WARNING 06: No info_player_deathmatch entities in level
          144 faces
           24 brushes
            8 entities
            4 unique texnames
           16 texinfo

Opened WAD: textures.wad
Processing hull 0...
---- Brush_LoadEntity ----
           24 brushes
           32 planes
---- CSGFaces ----
          144 brushfaces
           77 csgfaces
           51 mergedfaces
---- SolidBSP ----
           95 split nodes
           33 solid leafs
           63 empty leafs
            0 water leafs
            0 detail leafs
            0 detail illusionary leafs
            0 detail fence leafs
            0 illusionary visblocker leafs
         9720 leaffaces
         9720 nodefaces
---- Portalize ----
           63 vis leafs
           63 vis clusters
          156 vis portals
---- FillOutside ----
           52 outleafs
---- MergeAll ----
           44 mergefaces
---- SolidBSP ----
           43 split nodes
           33 solid leafs
           11 empty leafs
            0 water leafs
            0 detail leafs
            0 detail illusionary leafs
            0 detail fence leafs
            0 illusionary visblocker leafs
         3398 leaffaces
         3398 nodefaces
---- Portalize ----
           11 vis leafs
           11 vis clusters
           21 vis portals
---- Tjunc ----
          427 world edges
         7488 edge points
          496 edges added by tjunctions
            2 faces added by tjunctions
---- MakeFaceEdges ----
---- GrowRegions ----
Processing hull 1...
*** WARNING 19: No entities in empty space -- no filling performed (hull 1)
Processing hull 2...
*** WARNING 19: No entities in empty space -- no filling performed (hull 2)
*** WARNING 16: Texture __TB_empty not found
---- WriteBSPFile ----
Wrote bigbox.bsp
           72 planes             1440
         3648 vertexes          43776
           43 nodes              1892
            9 texinfo             360
         3400 faces             95200
          188 clipnodes          2256
           12 leafs               528
         3400 marksurfaces      13600
        14092 surfedges         56368
         7047 edges             56376
            4 textures          11360
              lightdata             0
              visdata               0
              entdata             547

0.104 seconds elapsed
Peak memory usage: 16545728 (15.8M)
